 
                                  MODFLOW-2005      
    U.S. GEOLOGICAL SURVEY MODULAR FINITE-DIFFERENCE GROUND-WATER FLOW MODEL 
                             Version 1.12.00 2/3/2017                         
 
 Using NAME file: mf.nam  
 Run start date and time (yyyy/mm/dd hh:mm:ss): 2020/11/04 10:45:43 

